* LTspice Encrypted File
* 
* This encrypted file has been supplied by a 3rd
* party vendor that does not wish to publicize
* the technology used to implement this library.
* 
* Permission is granted to use this file for
* simulations but not to reverse engineer its
* contents.
* 
*************************************************************************
*  (C)  Copyright  Toshiba Electronic Devices & Storage Corporation 2019
*  Date                 :23/03/2018
*  File name            :TLP185_SE.mod
*  Part number          :TLP185(SE		(IC/IF(CTR):~200%)
*  Parameter ver.       :Ver.1.2
*  Simulator            :LTspice
*  Model call name      :TLP185_SE
*  TNOM                 :25 degree
*  Pin Assign           :1=Anode 3=Cathode 4=Emitter 6=Collector
* 
* Operation of this model has been verified only on the LTspice.
*************************************************************************
* 
* Begin:
 FB 4F B0 23 F9 2C DB B7 A3 10 EA 32 8E D9 0E 82
 4C B9 98 D2 EB 0B 4B 57 46 D1 A0 F0 ED 4A F7 58
 CD 54 A6 01 64 EA CD 33 E4 48 C5 A2 82 77 17 B7
 AB C3 AE 3F 1B 87 56 3D 08 AC 2C 7D 8F 91 3A A3
 39 59 9D 6E BB 96 9D 47 99 4C 8B 54 EC CE 62 5D
 BC 53 EC 5F 40 3C 28 84 BA B7 D0 0E 42 8F 11 90
 F8 9A 26 64 C4 ED BE 74 33 58 A0 0D A7 F9 3D A8
 0B 86 49 83 D8 38 ED 17 75 99 96 44 C0 A8 2F 55
 9E 32 A8 09 13 48 78 9E 33 5A 08 17 E9 A0 B2 11
 1C 38 78 2E ED 05 D0 67 04 8E 16 86 D4 56 0D 79
 1B 60 A6 1F 67 32 66 45 C0 1D 0B 13 22 C6 53 B4
 2D 8A 51 8C EF 74 CB 6D 67 F1 9D 67 11 5A 6E FB
 B0 1D 7A 71 40 A1 28 A6 A9 6C 6F C4 2B E2 D3 58
 00 54 37 7B D0 82 C1 25 56 AF D8 B3 B8 D5 32 40
 A1 E4 17 83 C0 A2 D3 26 CE 63 5E D8 9C 31 75 E7
 75 E5 57 46 CF 25 E3 25 4A FB A9 BB F8 1A CF 1A
 18 CC 70 B9 B2 A9 20 01 85 54 BF E5 28 A7 F3 23
 BE 5C 00 C8 D3 8F 83 53 CB AB 8E DD 1A 63 97 29
 0B D4 86 38 FE FD FC 5E 81 93 B7 AE 33 9D 50 5B
 34 1D CD 1C 31 D3 BA A9 60 DC 8F 58 D9 05 04 E1
 6E 17 20 64 1E EC BE 1E 8C 00 49 51 EE A6 F4 B7
 17 44 A7 B3 2F C5 27 36 89 E7 A9 5D C1 C6 E6 7C
 E7 90 B2 28 9D C3 BB 37 B2 9A EE 7D 44 64 7B AA
 8C 81 B7 B9 9B B5 53 8B EA 6A 3E 62 85 07 26 F2
 0E 2B 49 5C 78 49 74 16 32 29 0E 39 76 63 AA DD
 D0 7A DA EC 12 1A 1A D7 3A 9A 19 8F 8C 45 90 CF
 FC 3E F8 41 4D A0 14 26 95 7D 64 75 5A 96 7C F2
 5B 56 AE 27 19 BA 70 C2 E5 1A B5 D0 B9 46 61 D8
 E6 43 3F 1C 93 A3 09 86 4D 79 09 D4 6F 97 6E 4A
 AB D8 1F 3C B8 BB 89 C1 48 AF 14 92 8E 73 A7 43
 FD 90 81 34 3C 53 05 C1 B0 79 16 75 9C 84 A0 E8
 10 2A 23 16 15 DD 9D E5 80 94 51 04 46 3F 80 FA
 B9 79 E0 C0 78 2B F3 22 CD 75 A3 6F AD 96 C9 35
 DF AD 9A 7B 03 B8 0F 09 54 9B F8 AB 90 76 CB A1
 10 38 89 BF EF 96 76 8C 91 12 18 F5 2F 6E 62 11
 60 6D 20 40 B0 02 01 F9 0B 2D 44 82 C1 7B 0D C0
 C5 CF 36 E1 C6 9B BF 41 8E EB DA 8F 28 5E B5 43
 6C 07 6D 5B 52 EA E9 D1 84 9D 62 2F C7 52 41 04
 8B 2D 10 FB 7E 2D 5B 4F 36 C0 83 5F 0A B6 92 13
 46 2A 3C 60 40 85 78 D8 C4 96 3B 2D 09 D9 FB B2
 F5 C1 7F 49 AC 8C BC 1A 3F 6C A5 C1 73 19 8A A9
 86 D1 5C 67 6F 1E B4 24 14 67 67 CE 42 C3 C0 D5
 5F E9 41 D6 EE 41 49 26 EE 5D FD EA F5 0A D1 41
 A7 70 03 E6 5E 54 0B 39 7A AC E0 40 23 D8 9C FD
 D6 EB 90 AB F1 9B B6 A4 4E 97 08 9B BC 4F 9F 78
 FC E0 A6 1F EA 04 06 C4 5A 31 D2 9D 27 08 7B C1
 44 87 78 DE E1 EA F9 EA F2 DC 46 81 C4 F4 48 82
 66 A0 F7 4F 48 D9 C4 60 56 BF D1 37 06 05 15 23
 14 8A 8D EE 11 53 90 C1 3A 7A B0 BD F8 5B 79 65
 C2 B7 25 F8 A9 FA 1B 9B 8E E3 18 D6 B6 8D 4E 16
 46 E3 D6 2B 7B 47 6C 6C 1B 3B 30 2B 11 9A D8 B5
 6F FF 57 77 1D 50 A7 BC 0B 7F B8 CE 35 01 FB 75
 93 68 9F C8 3F A1 3E F3 6A C5 41 C1 F0 5F 27 D6
 47 25 A0 31 C5 BB 13 35 71 7D 05 84 5E F0 45 7F
 74 41 22 AB 24 8A 89 13 37 40 2F DE 4D F3 E0 8F
 36 20 C8 51 A4 06 AA B8 71 61 B6 61 E5 81 54 CC
 EF FD B9 12 08 37 4E FC 35 90 8D CD 65 DF F6 92
 EE 1C 05 74 E0 29 54 AF 04 7A 31 DB 8B 42 A3 F0
 00 30 98 37 D5 E6 B4 16 44 88 74 6C C0 E7 0A 92
 C3 25 E4 63 42 70 B7 35 07 92 45 A7 05 94 EF 3F
 97 AD 80 42 61 F1 A9 80 D3 2E 24 E5 1D 55 CD 96
 9D D6 55 47 76 A2 47 83 46 27 B3 8D DD 04 D5 75
 A2 CE 7C B4 4B 98 E5 D7 40 DE 4E 36 B7 83 09 B3
 1D 74 FB 86 60 49 0D 4C 46 3B 03 81 EC D9 FD 85
 44 0B 2C 8F DA 2E EC 29 AD 87 24 FD ED A3 8B D1
 5A 56 C5 CF 0C 83 0B A8 9C E4 39 73 ED C0 2C 56
 7D 4F F7 54 CC 68 DD BB 87 CC 5D D7 8C 82 B8 BE
 18 71 B6 3D 55 20 E0 26 E3 D2 03 54 CC 83 EE B3
 80 DC 32 49 AA CB 17 E2 27 2E 7F B3 5D E4 2C 35
 FC CA 9E 42 11 CD A1 72 85 B0 96 FE 0E 67 B6 A4
 0C 39 E7 C4 EE 5B 68 B5 84 83 5B 01 09 53 88 96
 8A 98 E5 AF 6A 67 79 0C 66 F5 94 AA 2D 2B 38 C7
 52 F8 A3 E7 0C 40 CD B9 61 5B 4E 75 17 8F 69 54
 B0 FF 32 D5 4F B6 2F 53 5B A8 BA D3 AE 8F B7 82
 6F 24 15 1F 70 86 A7 1A 9C E7 AC 72 BE 25 A8 0D
 60 B6 31 F6 73 BC E1 8E B2 0B 4B 51 E1 39 38 2C
 BB 1F AD 8F 7A E7 CC E4 F7 9B 8B 77 D6 A8 F5 33
 60 08 94 C1 AD 3A B3 DC 5B 89 8E A2 21 20 06 92
 F2 DF 9F BF 9A 5A 71 A7 B1 1D DE 5F 1E 16 1A 41
 05 07 49 3C 70 92 9C 65 68 85 F7 D8 BE B1 2C 25
 FC A6 60 DC 6A BB EA 35 12 3B CD F7 06 E9 58 4E
 1A 4A A0 8B 9E 0B B1 25 59 1A F3 4D DB 3D E3 1D
 CE 0E B2 41 84 E4 7F 1F 18 3A C9 DD 36 1A 92 E6
 AA 00 E7 3F D8 46 23 1A BB 59 C7 31 CD F0 EC D3
 00 9C 86 14 74 A5 C9 01 DA 43 DA 33 0B A2 87 74
 FB 5E 57 F5 2B D9 88 CE 73 FD C0 DF 65 2E 70 08
 63 B0 34 7D 17 CC 5E 3E 53 4B 65 7C D9 6A B9 E4
 9F 4B C1 20 3C E4 57 07 89 FD F2 60 29 59 97 2B
 A0 52 1E 5E EB F9 80 2C 13 93 58 E1 D6 D0 D2 B2
 BF 5F EE 27 4B 56 41 F9 76 20 B9 F0 44 AE D0 71
 DE 8F 64 FC BD 98 FB DF D6 11 CE 7E 6E FF A4 36
 E7 9A 79 E4 2F 05 C1 16 73 3A FE FD A5 D9 E1 45
 C1 24 C9 A8 39 78 1F 5F 14 9B D1 07 70 53 2E 7E
 2C DD FE 7E F9 83 C6 80 66 C1 AD 08 99 CE A5 61
 74 98 58 97 70 99 33 BA 93 7B 4F C4 02 FF CB 88
 E4 37 DE 77 82 58 BA 31 9C 65 C1 71 C5 09 E9 84
 80 3C 91 7D B3 A9 73 A7 46 BC FB F6 CB A2 B2 4B
 6B E8 A4 53 74 C5 02 8C F3 BE 39 EB BB B4 8B 72
 24 D0 17 53 4D F3 07 67 2E 15 39 3A 6E EF 5C 74
 2E AD 27 91 B0 1C C9 30 AA 07 29 C8 DD 6A 98 E3
 F7 8D D4 A7 BE DF A1 E4 C0 EE E9 E4 AE 28 7A 56
 BD AA C3 AD D1 55 92 04 41 07 19 32 BB 19 06 3A
 79 BC 81 86 2F 38 FB 4D F0 A4 7F BC 9D 93 0A 29
 CA E9 D9 01 12 98 57 1D 17 A2 76 2C 48 43 E0 A6
 68 A4 00 1C CA 7A 4B 6B AE C5 EC 80 F4 09 D3 58
 66 49 48 36 DD DC D6 C1 20 4E 97 99 8F BA CE 94
 DB 4A 00 F4 3E D2 51 9F 6F 5B 0D A2 BA 9B CC A6
 B1 6B A9 EE C8 BE 47 5D 2D E2 99 8F 35 16 2A 55
 0E B0 4B 37 59 0C 86 44 26 22 36 C7 35 09 F2 63
 5C 8E 26 7E 2F 87 97 84 6E 66 F2 8D EB EC 26 89
 9B 3D BB 27 7D 5B EF 25 59 99 E8 6C 5B 31 E2 BD
 C3 D9 CF ED FC E5 E1 AD 42 3B CD 91 B2 80 41 8A
 66 2D 50 F9 94 1C CC E5 9C DE D1 B5 70 D0 BE 78
 D6 0A 33 F3 80 30 C7 B4 A0 B3 DD 53 33 92 74 BB
 95 48 AF 72 81 2F FA 11 4C DF 9C 99 C3 37 02 46
 75 A4 CD 0C 31 C7 79 10 C2 21 CF 91 FF 24 A6 3A
 B4 69 D6 B6 C5 8C 4B 49 DE 48 73 60 97 E1 21 DE
 7B 21 B3 33 6F C8 B2 83 21 02 3C 06 F3 E8 C8 FC
 B0 5F 43 74 AA 32 30 C3 64 76 7C DB DC 90 A5 32
 D2 70 1A C6 1A 7A B5 EE C6 5F 89 3C D5 A3 E6 0C
 88 79 12 4A B9 5F E5 9B 7F E7 AA 2F A9 95 38 50
 3A 15 DD 21 EA 64 2E BD B9 28 D0 0C 80 C1 89 39
 0B DC 51 0C E1 AD 11 01 B8 1D 0E 84 D7 F0 67 A1
 E4 00 13 4B D6 6B C9 3B 86 CC A9 3F 3D 46 66 14
 C8 1B 94 0A DD 20 8E BA CB B9 22 05 E1 2E D5 B5
 F7 8A AF 3C 0C 0E 00 65 71 DC 06 F0 4D 18 64 E1
 22 90 BE CF B9 8A A4 A3 06 CD 5B 9F 49 CF 18 4B
 B4 2A 02 E6 91 7F C2 55 C5 B5 2C 9B 58 4E 53 16
 8B A3 59 84 6B D2 E6 43 26 34 45 DE EC 6A 44 A2
 19 E3 47 0F CB A9 64 6B 0F 19 7C 78 E5 8F 78 6F
 07 9E 8A E6 70 AC 50 77 EF AB 6B FE E0 EE C5 32
 12 97 DC EE 02 F6 13 A9 E1 6D 63 71 2B 92 8D 87
 21 A1 CC B8 18 5B 5E 4D D8 0B C7 F9 8B 05 78 D2
 9D 06 64 76 5F BE F0 2F DA 93 27 CF 59 E2 54 5F
 11 83 3D 07 68 5D CD AE C3 48 30 F3 9E F1 17 3C
 3F 2A 48 C6 F3 CA 42 D6 9C 5B F0 4E 8F 57 9B 41
 E9 8A 8A 11 BC E8 21 36 AB F3 7A 7B 6F C0 3F ED
 6F 16 96 0D BF 04 68 5B B1 19 94 F8 0E 30 FF CE
 8F 71 B7 3D F1 8C 14 04 9E 69 1F 3C 24 7E 20 46
 BA 01 07 DB 6B 9F 40 C4 9F 95 F7 A3 29 59 D9 57
 12 54 DB 4C 10 14 09 AF 53 F6 26 81 31 33 AD 13
 96 72 D8 75 43 6E 39 2A 6D 01 F6 6D 4B 8D FF EF
 4D EF 08 3D 0E F8 0B 60 11 99 29 BC D0 B9 D9 1A
 6C CD DC 68 F0 04 0C F0 CB 04 FC 69 D3 B7 12 AC
 59 BC 1E B5 01 34 37 7C 60 86 89 90 00 29 39 D6
 C4 32 5F F9 C7 F6 27 8C 01 B8 25 28 BC 2B 86 0F
 58 61 29 99 24 1A 47 32 C2 5F 91 D0 69 3F DE 1D
 5A D7 12 30 6E 58 62 2E 01 71 53 2E 34 36 5C A5
 13 04 F6 49 95 A2 2C 2A 56 75 37 A8 3C 8E E1 66
 FA BB D2 0B 26 5D 39 91 53 51 29 12 0E 80 84 D0
 DE 9E 60 85 A1 84 33 9E 8B 3C 9C 27 E5 85 80 4B
 B4 B3 EC EB 81 AA 38 41 F7 64 34 10 10 0D 62 9D
 CE C2 50 E5 51 5B 32 5A 5E B0 91 34 55 DA CC 43
 B3 0B 0D E1 02 77 CA AC AA 8E 67 B2 12 54 78 18
 7A E6 1C 6D 98 86 09 09 6D 3A 72 1C 68 AB A1 58
 A7 C6 7A 65 4C A8 97 08 50 66 40 4E EA 59 85 06
 CD A6 5B 76 C6 21 A1 89 C7 69 E3 39 49 81 73 17
 61 85 DA 0A 45 4E AD 6E 2C FC A8 C3 6F FF ED 64
 52 71 D8 2B 8B 91 01 F6 00 CF 94 DB 4E 15 E3 B3
 45 30 FF 5C 32 FD 39 15 58 7A 7D B8 5B 75 16 40
 71 B8 7A E4 AC 72 3C 5F 15 23 FF 0C 1B C3 66 FF
 72 DF 0D 8B 41 47 DF 21 EA 69 B2 5B 15 2C 2E 89
 B4 74 5B 62 54 7F 58 35 E8 23 E2 91 46 E9 C8 35
 18 36 73 BC 2D EE 5E 25 AC 1E 4C B7 44 73 15 20
 B0 1C 6C AB DC 99 F6 E0 41 78 A4 F2 D0 5C 1E D8
 DD A7 BE A0 CD 47 CF C6 BF 28 54 C0 D5 2B FB 34
 9E 14 69 02 0A 94 2E C9 52 E6 D3 CB 0A CA E8 F2
 99 50 88 17 D7 CF 42 AF BF C7 06 6E F2 C5 6D DE
 89 CF 8F 6F FE 8C C1 3B 1D C8 18 E6 C0 4A 61 14
 72 02 BE EA 88 37 B9 25 AB 7F 49 9D CC 0F 6F 7C
 6F 55 D1 7A 1A 06 4C DF 33 FD 01 13 FB 83 B0 3E
 36 23 9D 45 FC 84 30 0B C9 DD 38 DB 94 BF 60 47
 6F 6A DB DB 99 28 B3 E6 31 B0 B7 C4 23 F2 F8 21
 85 3B DE 30 02 92 3F 93 14 35 BF 31 37 F2 05 E0
 01 CB C3 45 30 8F 2F E7 A1 07 B5 89 4D 98 2F 0B
 6A 54 C5 53 C8 D1 2D 7E A8 54 5F 37 1A E0 E5 45
 EC 37 7C 94 1F 4E BF 3C 30 16 8E 88 D8 95 76 0D
 A5 C9 BC 67 B3 A0 09 03 B4 62 5E 80 47 95 02 49
 90 35 44 A8 F5 B9 43 F6 77 0B 8D 9C AB 3F 88 2E
 23 BE E0 6A 88 66 61 0D 78 0B F1 8E 96 02 3F D5
 A5 31 20 EF F5 B4 CB 45 30 0F 2D FB 10 2E 73 F5
 E6 19 20 C3 EC 5D D8 A7 36 25 40 42 72 C8 FB 4C
 EC C1 E5 D9 5F CA 7F 91 03 42 6A F0 D0 44 5B C2
 45 56 ED A0 BA D7 C2 4E 6E 5E ED 7B C1 11 3E 6E
 72 23 CB 22 CC 2D 6C AA AA 41 62 BC 7B 62 EA 7B
 2C 0C D5 7F 4E BF AB 6A 32 48 32 39 2D 2A 15 CA
 EE 6F 03 5D DC 01 13 02 DB D9 65 BE BB 2C 2C A4
 35 FE BD 48 8B 76 EE C8 CC 4B 2A DA 4B 91 D9 E6
 64 61 07 6A 2C 00 24 F0 50 41 41 26 EF 68 A8 B7
 DE 9F 4A 21 0B 9C FF BD BB 27 12 E9 81 C6 95 CC
 0E A5 13 96 C5 32 E3 B7 C3 9E BB 95 46 0B 84 80
 DE 64 A9 30 52 B9 F8 29 18 46 9E 22 7A 76 64 26
 C2 52 69 B1 A9 57 3C 41 21 BF E6 AD 56 FE AE C5
 81 32 D7 5C 67 B8 F7 77 10 41 71 43 D2 32 CF 89
 96 4A 56 43 77 FB 3B 66 4D 27 01 AB 5F 9F 50 4C
 2B 08 58 8F 4D 83 40 BB 35 08 A4 65 63 20 D5 57
 4D F9 AB 9B 7D 1E 47 CF 3E 37 86 22 D7 BD 3A 5E
 FA 33 10 57 EF F1 CA EC 71 E7 4A 60 92 3D 7B F9
 A1 1C 45 0F A0 CC 31 92 72 80 C2 B3 98 E1 63 F3
 A4 43 E3 5E 3C FC 78 CE B1 AD A5 C6 BA 58 9A 81
 03 56 31 49 C0 8D 67 03 77 B4 AD 7B B3 A1 17 4A
 6B 8F 19 71 69 26 3A 81 8D 14 63 EA 91 5D 2C DB
 70 11 61 C2 8E 1D A0 D2 5B E2 3A 2C 45 0A 2A C2
 5D 77 7E 57 78 DC 54 8B 42 DF EE 61 88 46 85 28
 41 7E 34 6E 3D 7A CE 3A 75 17 46 0F DB 80 50 DD
 EE 91 BD FA BB 35 14 A4 62 33 55 71 63 94 0E 6C
 08 EE 6D AC D4 D4 90 E1 E3 E7 0E 60 7D 9C CB 2C
 36 23 CA A2 CC D8 B6 D0 B5 4E 5A C3 C2 72 47 01
 E1 F9 90 CB 40 BB 92 F5 79 91 91 DD D0 12 F7 63
 EE B3 7A D8 CB 9C 16 E9 68 5E 92 A4 AE 2E 6E 03
 F7 2D 7E 4D 21 C0 80 54 6C 0A 16 36 CF 0F BF 4A
 46 B7 26 2E 63 D9 A8 9F D1 EE DA E2 41 C2 E7 E9
 79 F7 AD 3C 7C 78 82 3D F2 7F AD 0B D0 73 6F 19
 02 5C DA 94 21 67 7F F4 A0 11 42 80 09 9E 99 86
 73 AB D6 1C B6 38 79 AC 8E 38 18 B9 64 A0 AB E2
 CE 32 90 A4 FB F2 3E 24 50 3E 16 D6 88 AA 32 6C
 50 C1 10 01 B1 1B 6A 70 FE D7 0D 30 F1 AD C4 95
 5C 03 FC D0 D0 93 2C A1 E8 11 73 CA 0C D0 46 F4
 7B A6 2B A7 42 D2 9B FA 0C 13 1F 25 12 BC 73 9A
 DF 7E 98 1D 5B 43 55 6E 14 B2 51 7B A5 D5 F8 51
 A2 7C 84 AE F5 BB 6C 65 66 B2 2F FE B2 24 0A 6D
 F6 D0 0A 1D 37 27 69 CB D3 17 13 9C AC 17 2B D6
 5A 50 CB 94 00 98 35 04 A7 90 3E BA FE 8C F9 66
 F3 8C FD D4 0A B7 FF 2A 86 87 17 E7 35 B8 96 3F
 3F D3 09 99 DC 89 7C 2E 27 E3 DA FA B9 2E 4F 37
 E0 29 29 EF F6 73 9D 42 7B 9F E9 C0 C3 76 5A 25
 06 5D 14 14 88 6D 84 4A 07 0A 17 0C 1C 46 0E 7E
 89 00 D9 1D 82 0E EA 04 AF 8A C4 03 D3 8E D9 73
 27 91 FC A0 7B AF DB 52 F0 77 1B 0F E9 7A C7 25
 B4 FD 1D FC A9 0E A1 11 88 F1 1A 01 FB 92 36 1F
 A4 D4 72 24 08 48 8B 2A 28 6F D0 B3 CF 47 77 4A
 E9 23 42 05 69 69 95 D3 66 5C 23 00 A0 BE 2D C5
 06 E8 1E 7B 4F 6A 8E 20 08 D3 9F 76 35 41 63 2A
 E9 3A AA 5E 16 06 3B E6 96 4B 81 76 06 E6 57 79
 0C 8B 3D 65 E3 C7 42 87 57 FE FA F1 53 C8 5C 7A
 33 8E 9E 62 0F EB FC A2 54 C8 12 F4 A2 76 D7 7A
 81 E1 5A 59 46 50 D3 19 8C 87 C1 69 95 C8 60 94
 BC 43 59 E6 15 E7 14 21 98 A2 88 D9 F4 E1 19 74
 A3 5A 7A F0 9D 23 3E 58 55 A1 0A 23 A0 14 F6 58
 6F 1E 07 B7 97 B4 D8 BC 63 E6 E6 85 4E 6B 22 5B
 CF 43 64 ED B5 19 0C 11 A3 86 FB 10 59 F7 15 5B
 F9 0D 65 38 AC 9F E6 BE A8 1E E3 BA FE BA 1C EA
 6A A8 FD CA EF AB DC 1B 60 D4 D4 59 5D 50 8D D3
 EB 68 16 0E 9A 53 EF 3E 50 D0 BB A5 BA 9E 66 07
 DA E0 44 91 68 98 57 6D 6F 36 09 71 58 83 1B 81
 AD 7A 45 85 5D 6E 27 A7 27 FE 7E 7F 29 2A DE 98
 52 4F B5 3F 69 DD AB 6B E6 D4 36 3B D9 8D 85 9F
 E5 66 88 21 69 5D 4F BF A0 5A EC D1 24 9E B5 E4
 30 B0 7B 79 5D 74 32 B4 F1 24 4B 48 04 54 12 1F
 84 43 32 99 D3 20 3D B4 3B 21 77 AA 47 B0 D1 72
 83 08 A5 A5 C1 9D F8 E5 8F 53 B2 9F 54 A8 FE BF
 02 6C 6C 67 19 CB 48 94 CB EC DC 60 99 45 90 98
 3F AF D2 CC 1B 23 7D 4B A5 42 0F AF 22 3C 54 EF
 A5 1A 08 B5 C8 D1 CB 37 F9 15 A3 0E 44 B7 0B 18
 EA D6 18 30 ED 9B 32 18 CA A2 4C F5 D6 9E 05 C2
 4D AE AB B8 0A CA C0 53 9C 61 A5 8A A5 23 CE 35
 A2 28 15 FA 94 95 F0 D7 F3 C8 3F B3 36 D4 3F 75
 DA EF C7 97 9D 35 F5 BA E1 53 5B C6 54 5D 27 D4
* End 2603814438 3907637251